Version 4
SHEET 1 2464 680
WIRE 1440 -576 1040 -576
WIRE 1568 -576 1440 -576
WIRE 1568 -512 1568 -576
WIRE 1040 -448 1040 -576
WIRE 1440 -448 1440 -576
WIRE 1520 -448 1440 -448
WIRE 368 -256 112 -256
WIRE 576 -256 448 -256
WIRE 704 -256 576 -256
WIRE 1568 -256 1568 -432
WIRE 1568 -256 1424 -256
WIRE 1168 -240 928 -240
WIRE 112 -160 112 -256
WIRE 704 -144 704 -256
WIRE 704 -144 640 -144
WIRE 736 -144 704 -144
WIRE 864 -144 800 -144
WIRE 928 -144 928 -240
WIRE 928 -144 864 -144
WIRE 976 -144 928 -144
WIRE 1168 -144 1168 -240
WIRE 1168 -144 1056 -144
WIRE 1360 -144 1168 -144
WIRE 1424 -144 1424 -256
WIRE 1424 -144 1360 -144
WIRE 1472 -144 1424 -144
WIRE 1504 -144 1472 -144
WIRE 112 -128 112 -160
WIRE 128 -128 112 -128
WIRE 288 -128 208 -128
WIRE 640 -128 640 -144
WIRE 640 -128 480 -128
WIRE 112 -80 112 -128
WIRE 256 -80 112 -80
WIRE 1360 -80 1360 -144
WIRE 112 -64 112 -80
WIRE 1504 -64 1504 -144
WIRE 256 -32 256 -80
WIRE 288 -32 256 -32
WIRE 752 -32 480 -32
WIRE 864 -32 864 -144
WIRE -448 32 -880 32
WIRE -384 32 -448 32
WIRE -208 32 -384 32
WIRE 32 32 -208 32
WIRE 112 32 112 16
WIRE 112 32 32 32
WIRE 240 32 112 32
WIRE 1360 32 1360 0
WIRE 1360 32 1312 32
WIRE 112 48 112 32
WIRE 1360 48 1360 32
WIRE 240 64 240 32
WIRE 288 64 240 64
WIRE 528 64 480 64
WIRE 528 96 528 64
WIRE -592 112 -880 112
WIRE -208 112 -208 96
WIRE -208 112 -592 112
WIRE 32 112 32 96
WIRE 32 112 -208 112
WIRE -592 144 -592 112
WIRE 288 160 208 160
WIRE 528 160 480 160
WIRE 752 160 752 -32
WIRE 864 160 864 32
WIRE 1200 160 1200 32
WIRE 1360 160 1360 128
WIRE 1504 160 1504 16
WIRE 528 208 528 160
WIRE -448 288 -448 32
WIRE 208 288 208 160
WIRE 1312 288 1312 32
WIRE 1312 288 208 288
FLAG -592 144 0
FLAG 864 160 0
FLAG 1504 160 0
FLAG 752 160 0
FLAG 1472 -144 24Vout
FLAG 1200 160 0
FLAG -448 368 0
FLAG 528 208 0
FLAG 1360 160 0
FLAG -384 32 5V
FLAG 112 -160 Isns
FLAG 576 -256 SWC
FLAG 1040 -368 0
FLAG 1520 -496 0
SYMBOL voltage -880 16 R0
WINDOW 0 49 31 Left 2
WINDOW 3 50 75 Left 2
WINDOW 123 0 0 Left 2
WINDOW 39 50 103 Left 2
SYMATTR InstName V1
SYMATTR Value 5v
SYMATTR SpiceLine Rser=0.5
SYMBOL res 224 -144 R90
WINDOW 0 0 56 VBottom 2
WINDOW 3 32 56 VTop 2
SYMATTR InstName R1
SYMATTR Value 180
SYMBOL res 96 -80 R0
SYMATTR InstName R2
SYMATTR Value 0.33
SYMBOL schottky 736 -128 R270
WINDOW 0 36 32 VTop 2
WINDOW 3 -4 32 VBottom 2
SYMATTR InstName D1
SYMATTR Value 1N5819
SYMATTR Description Zener Diode
SYMATTR Type zener
SYMBOL polcap 848 -32 R0
WINDOW 3 24 56 Left 2
SYMATTR Value 330µ
SYMATTR InstName C1
SYMATTR SpiceLine V=2.5 Irms=3 Rser=0.006 Lser=0 mfg="Rubycon" pn="2.5SWZ330M R09" type="Al electrolytic"
SYMATTR Description Capacitor
SYMATTR Type cap
SYMBOL ind 352 -240 R270
WINDOW 0 32 56 VTop 2
WINDOW 3 5 56 VBottom 2
SYMATTR InstName L1
SYMATTR Value 47µ
SYMATTR SpiceLine Ipk=0.85 Rser=0.123 Rpar=32930 Cpar=2.612p mfg="Bourns, Inc." pn="SRR6040A-470M"
SYMBOL res 1488 -80 R0
SYMATTR InstName R6
SYMATTR Value 1000
SYMBOL ind 960 -128 R270
WINDOW 0 32 56 VTop 2
WINDOW 3 5 56 VBottom 2
SYMATTR InstName L2
SYMATTR Value 1µ
SYMBOL cap 1184 -32 R0
SYMATTR InstName C2
SYMATTR Value 100µ
SYMBOL polcap 16 32 R0
WINDOW 0 -29 10 Left 2
WINDOW 3 -50 63 Left 2
SYMATTR InstName C6
SYMATTR Value 150µ
SYMATTR Description Capacitor
SYMATTR Type cap
SYMATTR SpiceLine V=2 Irms=3.87298 Rser=0.018 Lser=0 mfg="KEMET" pn="A700V157M002ATE018" type="Al electrolytic"
SYMBOL res -464 272 R0
SYMATTR InstName Arduino
SYMATTR Value 50
SYMBOL cap 512 96 R0
SYMATTR InstName C5
SYMATTR Value 430p
SYMBOL res 1344 -96 R0
SYMATTR InstName R3
SYMATTR Value 200k
SYMBOL res 1344 32 R0
SYMATTR InstName R8
SYMATTR Value 11.5k
SYMBOL MC33063A 384 16 M0
WINDOW 0 0 176 Center 2
SYMATTR InstName X2
SYMBOL cap -224 32 R0
SYMATTR InstName C7
SYMATTR Value 1µ
SYMATTR SpiceLine V=50 Irms=0 Rser=0.005952 Lser=569.87f
SYMBOL voltage 1040 -464 R0
WINDOW 123 0 0 Left 2
WINDOW 39 0 0 Left 2
SYMATTR InstName V2
SYMATTR Value PULSE(0 24 100ms)
SYMBOL sw 1568 -528 R0
SYMATTR InstName S1
SYMATTR Value MySW
TEXT -888 224 Left 2 !.tran 150ms
TEXT -880 264 Left 2 !.inc MC34063.lib
TEXT -880 304 Left 0 !.options Gmin=1e-9  method=Gear
TEXT -136 504 Left 2 !.meas RMScurrentStartup RMS I(V1) FROM 0 TO 70ms
TEXT -136 544 Left 2 !.meas RMScurrentRun RMS I(V1) FROM 80ms TO 100ms
TEXT 1832 -480 Left 2 !.model MYSW SW(Ron=1 Roff=100Meg Vt=.5 Vh=-.4)
