Version 4
SHEET 1 1572 680
WIRE 304 -880 -160 -880
WIRE 512 -832 400 -832
WIRE 560 -832 512 -832
WIRE 720 -832 640 -832
WIRE 880 -832 720 -832
WIRE 944 -832 880 -832
WIRE 1072 -832 1024 -832
WIRE 1200 -832 1072 -832
WIRE 1248 -832 1200 -832
WIRE -160 -816 -160 -880
WIRE -16 -816 -160 -816
WIRE 304 -816 304 -880
WIRE 304 -816 176 -816
WIRE -160 -768 -160 -816
WIRE -48 -768 -160 -768
WIRE 880 -768 880 -832
WIRE 1072 -768 1072 -832
WIRE 1200 -768 1200 -832
WIRE -160 -752 -160 -768
WIRE 720 -736 720 -832
WIRE -48 -720 -48 -768
WIRE -16 -720 -48 -720
WIRE 400 -720 400 -832
WIRE 400 -720 176 -720
WIRE 512 -704 512 -832
WIRE -752 -656 -848 -656
WIRE -672 -656 -752 -656
WIRE -336 -656 -608 -656
WIRE -240 -656 -336 -656
WIRE -160 -656 -160 -672
WIRE -160 -656 -240 -656
WIRE -64 -656 -160 -656
WIRE 768 -656 720 -656
WIRE -64 -624 -64 -656
WIRE -16 -624 -64 -624
WIRE 256 -624 176 -624
WIRE 720 -624 720 -656
WIRE 256 -608 256 -624
WIRE -656 -576 -848 -576
WIRE -240 -576 -240 -592
WIRE -240 -576 -656 -576
WIRE -656 -544 -656 -576
WIRE -16 -528 -80 -528
WIRE 256 -528 256 -544
WIRE 256 -528 176 -528
WIRE 512 -528 512 -640
WIRE 880 -528 880 -704
WIRE 1072 -528 1072 -704
WIRE 720 -512 720 -544
WIRE 256 -480 256 -528
WIRE -80 -416 -80 -528
WIRE 768 -416 768 -656
WIRE 768 -416 -80 -416
FLAG -656 -544 0
FLAG 512 -528 0
FLAG -336 -656 24V
FLAG 1200 -688 0
FLAG 256 -480 0
FLAG 720 -512 0
FLAG -752 -656 24Vin
FLAG 880 -528 0
FLAG 1072 -528 0
FLAG 1248 -832 5Vout
SYMBOL polcap 864 -768 R0
WINDOW 0 -29 10 Left 2
WINDOW 3 -50 63 Left 2
SYMATTR InstName C6
SYMATTR Value 120µ
SYMATTR Description Capacitor
SYMATTR Type cap
SYMATTR SpiceLine V=10 Irms=3.87298 Rser=0.018 Lser=0
SYMBOL voltage -848 -672 R0
WINDOW 0 49 31 Left 2
WINDOW 3 50 75 Left 2
WINDOW 123 0 0 Left 2
WINDOW 39 0 0 Left 2
SYMATTR InstName V3
SYMATTR Value 24V
SYMBOL res -176 -768 R0
SYMATTR InstName R5
SYMATTR Value 0.25
SYMBOL schottky 528 -640 R180
WINDOW 0 24 64 Left 2
WINDOW 3 24 0 Left 2
SYMATTR InstName D2
SYMATTR Value 1N5819
SYMATTR Description Zener Diode
SYMATTR Type zener
SYMBOL ind 544 -816 R270
WINDOW 0 32 56 VTop 2
WINDOW 3 5 56 VBottom 2
SYMATTR InstName L5
SYMATTR Value 47µ
SYMBOL cap -256 -656 R0
WINDOW 0 -29 10 Left 2
WINDOW 3 -50 63 Left 2
SYMATTR InstName C8
SYMATTR Value 149µ
SYMBOL schottky -672 -640 R270
WINDOW 0 32 32 VTop 2
WINDOW 3 0 32 VBottom 2
SYMATTR InstName D3
SYMATTR Value 1N5819
SYMATTR Description Zener Diode
SYMATTR Type zener
SYMBOL res 1184 -784 R0
SYMATTR InstName Arduino
SYMATTR Value 50
SYMBOL cap 240 -608 R0
SYMATTR InstName C3
SYMATTR Value 120p
SYMBOL res 736 -640 R180
WINDOW 0 36 76 Left 2
WINDOW 3 36 40 Left 2
SYMATTR InstName R4
SYMATTR Value 30k
SYMBOL res 736 -528 R180
WINDOW 0 36 76 Left 2
WINDOW 3 36 40 Left 2
SYMATTR InstName R7
SYMATTR Value 10k
SYMBOL MC33063A 80 -672 M0
WINDOW 0 0 176 Center 2
SYMATTR InstName X1
SYMBOL ind 928 -816 R270
WINDOW 0 32 56 VTop 2
WINDOW 3 5 56 VBottom 2
SYMATTR InstName L1
SYMATTR Value 1000n
SYMATTR SpiceLine Ipk=0.9 Rser=0.2 Rpar=1600 Cpar=1.25p mfg="Würth Elektronik" pn="74479763210A WE-PMI 0603"
SYMBOL polcap 1056 -768 R0
WINDOW 0 -29 10 Left 2
WINDOW 3 -50 63 Left 2
SYMATTR InstName C1
SYMATTR Value 120µ
SYMATTR Description Capacitor
SYMATTR Type cap
SYMATTR SpiceLine V=10 Irms=3.87298 Rser=0.018 Lser=0
TEXT -872 -440 Left 2 !.tran 10ms
TEXT -864 -400 Left 2 !.inc MC34063.lib
TEXT -864 -360 Left 0 !.options Gmin=1e-9  method=Gear
TEXT -880 -304 Left 2 !.meas RMSvoltage5VOut RMS V(5vout) FROM 2ms TO 8ms
